simvastatin
 OpenBabel12212505323D

 68 70  0  0  1  0  0  0  0  0999 V2000
    0.8927   -0.4304    0.0173 H   0  0  0  0  0  0  0  0  0  0  0  0
    1.9896   -0.2514    0.0409 C   0  0  1  0  0  0  0  0  0  0  0  0
    2.2026    1.2704    0.2908 C   0  0  2  0  0  0  0  0  0  0  0  0
    1.6645    2.0464   -0.9169 C   0  0  0  0  0  0  0  0  0  0  0  0
    2.3912    1.6936   -2.2319 C   0  0  1  0  0  0  0  0  0  0  0  0
    3.6910    2.4820   -2.4208 C   0  0  0  0  0  0  0  0  0  0  0  0
    2.6912    0.2138   -2.3410 C   0  0  0  0  0  0  0  0  0  0  0  0
    2.5257   -0.6685   -1.3291 C   0  0  0  0  0  0  0  0  0  0  0  0
    2.8382   -2.0971   -1.5777 C   0  0  0  0  0  0  0  0  0  0  0  0
    2.7348   -3.0187   -0.6119 C   0  0  0  0  0  0  0  0  0  0  0  0
    2.3375   -2.6814    0.8068 C   0  0  2  0  0  0  0  0  0  0  0  0
    0.8909   -3.1537    1.0286 C   0  0  0  0  0  0  0  0  0  0  0  0
    2.5998   -1.1724    1.1415 C   0  0  2  0  0  0  0  0  0  0  0  0
    2.1435   -0.7806    2.5768 C   0  0  0  0  0  0  0  0  0  0  0  0
    2.8169   -1.6139    3.6854 C   0  0  0  0  0  0  0  0  0  0  0  0
    2.4054   -1.1871    5.1085 C   0  0  2  0  0  0  0  0  0  0  0  0
    2.8156    0.2785    5.4194 C   0  0  0  0  0  0  0  0  0  0  0  0
    2.6500    0.5525    6.9132 C   0  0  1  0  0  0  0  0  0  0  0  0
    1.3071    0.3679    7.3037 O   0  0  0  0  0  0  0  0  0  0  0  0
    3.6206   -0.3495    7.6996 C   0  0  0  0  0  0  0  0  0  0  0  0
    3.6114   -1.7614    7.1684 C   0  0  0  0  0  0  0  0  0  0  0  0
    4.2415   -2.6246    7.7572 O   0  0  0  0  0  0  0  0  0  0  0  0
    2.9598   -2.0841    6.0176 O   0  0  0  0  0  0  0  0  0  0  0  0
    3.5449    1.5539    0.5155 O   0  0  0  0  0  0  0  0  0  0  0  0
    4.0333    2.1992    1.6138 C   0  0  0  0  0  0  0  0  0  0  0  0
    3.2672    2.7509    2.3943 O   0  0  0  0  0  0  0  0  0  0  0  0
    5.5366    2.2234    1.8764 C   0  0  0  0  0  0  0  0  0  0  0  0
    5.8559    2.9699    3.1957 C   0  0  0  0  0  0  0  0  0  0  0  0
    6.0261    0.7694    2.0236 C   0  0  0  0  0  0  0  0  0  0  0  0
    6.2927    2.8813    0.6875 C   0  0  0  0  0  0  0  0  0  0  0  0
    5.8543    4.3144    0.3645 C   0  0  0  0  0  0  0  0  0  0  0  0
    1.5832    1.5707    1.1639 H   0  0  0  0  0  0  0  0  0  0  0  0
    1.6748    3.1450   -0.7461 H   0  0  0  0  0  0  0  0  0  0  0  0
    0.5971    1.7485   -1.0262 H   0  0  0  0  0  0  0  0  0  0  0  0
    1.7138    1.9975   -3.0599 H   0  0  0  0  0  0  0  0  0  0  0  0
    4.4391    2.2154   -1.6569 H   0  0  0  0  0  0  0  0  0  0  0  0
    3.4911    3.5733   -2.3679 H   0  0  0  0  0  0  0  0  0  0  0  0
    4.1283    2.2600   -3.4180 H   0  0  0  0  0  0  0  0  0  0  0  0
    3.0839   -0.1367   -3.2926 H   0  0  0  0  0  0  0  0  0  0  0  0
    3.1341   -2.4197   -2.5725 H   0  0  0  0  0  0  0  0  0  0  0  0
    2.9158   -4.0597   -0.8644 H   0  0  0  0  0  0  0  0  0  0  0  0
    2.9993   -3.2762    1.4707 H   0  0  0  0  0  0  0  0  0  0  0  0
    0.1854   -2.6061    0.3699 H   0  0  0  0  0  0  0  0  0  0  0  0
    0.5795   -3.0167    2.0832 H   0  0  0  0  0  0  0  0  0  0  0  0
    0.8083   -4.2385    0.8018 H   0  0  0  0  0  0  0  0  0  0  0  0
    3.7018   -1.0225    1.0987 H   0  0  0  0  0  0  0  0  0  0  0  0
    1.0391   -0.8536    2.6660 H   0  0  0  0  0  0  0  0  0  0  0  0
    2.4266    0.2693    2.7475 H   0  0  0  0  0  0  0  0  0  0  0  0
    3.9220   -1.5421    3.5887 H   0  0  0  0  0  0  0  0  0  0  0  0
    2.5261   -2.6781    3.5687 H   0  0  0  0  0  0  0  0  0  0  0  0
    1.3006   -1.2841    5.1913 H   0  0  0  0  0  0  0  0  0  0  0  0
    2.1979    0.9918    4.8349 H   0  0  0  0  0  0  0  0  0  0  0  0
    3.8852    0.4395    5.1562 H   0  0  0  0  0  0  0  0  0  0  0  0
    2.9127    1.6071    7.1460 H   0  0  0  0  0  0  0  0  0  0  0  0
    1.1520   -0.5937    7.4929 H   0  0  0  0  0  0  0  0  0  0  0  0
    3.3481   -0.3160    8.7767 H   0  0  0  0  0  0  0  0  0  0  0  0
    4.6620    0.0243    7.5908 H   0  0  0  0  0  0  0  0  0  0  0  0
    5.3618    2.4683    4.0564 H   0  0  0  0  0  0  0  0  0  0  0  0
    5.4957    4.0187    3.1702 H   0  0  0  0  0  0  0  0  0  0  0  0
    6.9510    2.9798    3.3855 H   0  0  0  0  0  0  0  0  0  0  0  0
    5.5032    0.2639    2.8639 H   0  0  0  0  0  0  0  0  0  0  0  0
    7.1189    0.7401    2.2249 H   0  0  0  0  0  0  0  0  0  0  0  0
    5.8335    0.1908    1.0946 H   0  0  0  0  0  0  0  0  0  0  0  0
    6.1448    2.2666   -0.2233 H   0  0  0  0  0  0  0  0  0  0  0  0
    7.3848    2.8875    0.8994 H   0  0  0  0  0  0  0  0  0  0  0  0
    4.7752    4.3472    0.1056 H   0  0  0  0  0  0  0  0  0  0  0  0
    6.4317    4.6847   -0.5087 H   0  0  0  0  0  0  0  0  0  0  0  0
    6.0503    4.9978    1.2146 H   0  0  0  0  0  0  0  0  0  0  0  0
  2  1  1  6  0  0  0
  2  3  1  0  0  0  0
  2  8  1  0  0  0  0
  2 13  1  0  0  0  0
  3  4  1  0  0  0  0
  3 24  1  0  0  0  0
  3 32  1  1  0  0  0
  4  5  1  0  0  0  0
  4 33  1  0  0  0  0
  4 34  1  0  0  0  0
  5  6  1  0  0  0  0
  5  7  1  0  0  0  0
  5 35  1  6  0  0  0
  6 36  1  0  0  0  0
  6 37  1  0  0  0  0
  6 38  1  0  0  0  0
  7  8  2  0  0  0  0
  7 39  1  0  0  0  0
  8  9  1  0  0  0  0
  9 10  2  0  0  0  0
  9 40  1  0  0  0  0
 10 11  1  0  0  0  0
 10 41  1  0  0  0  0
 11 12  1  0  0  0  0
 11 13  1  0  0  0  0
 11 42  1  1  0  0  0
 12 43  1  0  0  0  0
 12 44  1  0  0  0  0
 12 45  1  0  0  0  0
 13 14  1  0  0  0  0
 13 46  1  6  0  0  0
 14 15  1  0  0  0  0
 14 47  1  0  0  0  0
 14 48  1  0  0  0  0
 15 16  1  0  0  0  0
 15 49  1  0  0  0  0
 15 50  1  0  0  0  0
 16 17  1  0  0  0  0
 16 23  1  0  0  0  0
 16 51  1  1  0  0  0
 17 18  1  0  0  0  0
 17 52  1  0  0  0  0
 17 53  1  0  0  0  0
 18 19  1  0  0  0  0
 18 20  1  0  0  0  0
 18 54  1  1  0  0  0
 19 55  1  0  0  0  0
 20 21  1  0  0  0  0
 20 56  1  0  0  0  0
 20 57  1  0  0  0  0
 21 22  2  0  0  0  0
 21 23  1  0  0  0  0
 24 25  1  0  0  0  0
 25 26  2  0  0  0  0
 25 27  1  0  0  0  0
 27 28  1  0  0  0  0
 27 29  1  0  0  0  0
 27 30  1  0  0  0  0
 28 58  1  0  0  0  0
 28 59  1  0  0  0  0
 28 60  1  0  0  0  0
 29 61  1  0  0  0  0
 29 62  1  0  0  0  0
 29 63  1  0  0  0  0
 30 31  1  0  0  0  0
 30 64  1  0  0  0  0
 30 65  1  0  0  0  0
 31 66  1  0  0  0  0
 31 67  1  0  0  0  0
 31 68  1  0  0  0  0
M  END
>  <Energy>
353.793

$$$$
